*Heading
** Job name: Job-1 Model name: stainlesssteel2dot5mm_yag250um_3600s
** Generated by: Abaqus/CAE 2016
*Preprint, echo=NO, model=NO, history=NO, contact=NO
**
** PARTS
**
*Part, name=Part-1
*End Part
**  
*Part, name=Part-2
*End Part
**  
**
** ASSEMBLY
**
*Assembly, name=Assembly
**  
*Instance, name=Part-1-1, part=Part-1
*Node
      1,           0., 0.0250000004
      2,           0.,           0.
      3,   0.36500001,           0.
      4, 0.0250000004, 0.0250000004
      5,   0.36500001, 0.0250000004
      6, 0.0250000004,  0.224999994
      7,           0.,  0.224999994
      8,           0., 0.0200000014
      9,           0., 0.0150000006
     10,           0., 0.0100000007
     11,           0., 0.00500000035
     12, 0.00499999989,           0.
     13, 0.00999999978,           0.
     14, 0.0149999997,           0.
     15, 0.0200000014,           0.
     16, 0.0250000004,           0.
     17, 0.0300000012,           0.
     18, 0.0350000001,           0.
     19, 0.0400000028,           0.
     20, 0.0450000018,           0.
** ... 664 like lines cut
*Element, type=DC2D4
  1,   1,   8, 241,  91
  2,   8,   9, 242, 241
  3,   9,  10, 243, 242
  4,  10,  11, 244, 243
  5,  11,   2,  12, 244
  6,  91, 241, 245,  90
  7, 241, 242, 246, 245
  8, 242, 243, 247, 246
  9, 243, 244, 248, 247
 10, 244,  12,  13, 248
 11,  90, 245, 249,  89
 12, 245, 246, 250, 249
 13, 246, 247, 251, 250
 14, 247, 248, 252, 251
 15, 248,  13,  14, 252
 16,  89, 249, 253,  88
 17, 249, 250, 254, 253
 18, 250, 251, 255, 254
 19, 251, 252, 256, 255
 20, 252,  14,  15, 256
** ... 545 like lines cut
*Nset, nset=Set-1, generate
   1,  684,    1
*Elset, elset=Set-1, generate
   1,  565,    1
** Section: Section-1
*Solid Section, elset=Set-1, material=STAINLESS_STEEL
,
*End Instance
**  
*Instance, name=Part-2-1, part=Part-2
-0.000249999999999972,     -0.00025,           0.
*Node
      1, 0.000250000012, 0.000250000012
      2, 0.000233934959,           0.
      3,  0.365249991,           0.
      4,  0.365249991, 0.000250000012
      5, 0.000250000012,  0.225250006
      6,           0.,  0.225250006
      7,           0.,           0.
      8, 0.000240102891, 0.000171640189
      9, 0.000234857289,  8.6769418e-05
     10, 0.000342153246,           0.
     11, 0.000446393999,           0.
     12, 0.000548419077,           0.
     13, 0.000649332011,           0.
     14, 0.000749725907,           0.
     15, 0.000849890232,           0.
     16, 0.000949956942,           0.
     17, 0.00104998332,           0.
     18, 0.00114999351,           0.
     19, 0.00124999741,           0.
     20, 0.00134999899,           0.
** ... 21342 like lines cut
*Element, type=DC2D4
    1,     1,     8, 11813,  7309
    2,     8,     9, 11814, 11813
    3,     9,     2,    10, 11814
    4,  7309, 11813, 11815,  7308
    5, 11813, 11814, 11816, 11815
    6, 11814,    10,    11, 11816
    7,  7308, 11815, 11817,  7307
    8, 11815, 11816, 11818, 11817
    9, 11816,    11,    12, 11818
   10,  7307, 11817, 11819,  7306
   11, 11817, 11818, 11820, 11819
   12, 11818,    12,    13, 11820
   13,  7306, 11819, 11821,  7305
   14, 11819, 11820, 11822, 11821
   15, 11820,    13,    14, 11822
   16,  7305, 11821, 11823,  7304
   17, 11821, 11822, 11824, 11823
   18, 11822,    14,    15, 11824
   19,  7304, 11823, 11825,  7303
   20, 11823, 11824, 11826, 11825
** ... 15436 like lines cut
*Nset, nset=Set-1, generate
     1,  21362,      1
*Elset, elset=Set-1, generate
     1,  15456,      1
** Section: Section-2
*Solid Section, elset=Set-1, material=yag
,
*End Instance
**  
*Nset, nset=Set-1, instance=Part-1-1, generate
   1,  684,    1
*Nset, nset=Set-1, instance=Part-2-1, generate
     1,  21362,      1
*Elset, elset=Set-1, instance=Part-1-1, generate
   1,  565,    1
*Elset, elset=Set-1, instance=Part-2-1, generate
     1,  15456,      1
*Elset, elset=_in_allumi_S4, internal, instance=Part-1-1, generate
  26,  361,    5
*Elset, elset=_in_allumi_S2, internal, instance=Part-1-1, generate
 370,  565,    5
*Surface, type=ELEMENT, name=in_allumi
_in_allumi_S4, S4
_in_allumi_S2, S2
*Elset, elset=_in_coat_S4, internal, instance=Part-2-1, generate
     1,  10948,      3
*Elset, elset=_in_coat_S1, internal, instance=Part-2-1, generate
 10954,  13203,      1
*Surface, type=ELEMENT, name=in_coat
_in_coat_S4, S4
_in_coat_S1, S1
*Elset, elset=_out_allumin_S1, internal, instance=Part-1-1, generate
 1,  5,  1
*Elset, elset=_out_allumin_S4, internal, instance=Part-1-1, generate
 366,  561,    5
*Elset, elset=_out_allumin_S2, internal, instance=Part-1-1, generate
   5,  365,    5
*Surface, type=ELEMENT, name=out_allumin
_out_allumin_S1, S1
_out_allumin_S4, S4
_out_allumin_S2, S2
*Elset, elset=_out_coat_S3, internal, instance=Part-2-1, generate
 13204,  15456,      1
*Elset, elset=_out_coat_S2, internal, instance=Part-2-1, generate
     3,  10950,      3
*Elset, elset=_out_coat_S4, internal, instance=Part-2-1
 10951, 13204
*Surface, type=ELEMENT, name=out_coat
_out_coat_S3, S3
_out_coat_S2, S2
_out_coat_S4, S4
** Constraint: Constraint-1
*Tie, name=Constraint-1, adjust=yes
out_allumin, in_coat
*End Assembly
** 
** MATERIALS
** 
*Material, name=STAINLESS_STEEL
*Conductivity
 16.3,
*Density
8000.,
*Specific Heat
500.,
*Material, name=yag
*Conductivity
 1.68,
*Density
4560.,
*Specific Heat
590.,
** 
** PHYSICAL CONSTANTS
** 
*Physical Constants, absolute zero=0., stefan boltzmann=5.67e-08
** 
** PREDEFINED FIELDS
** 
** Name: Predefined Field-1   Type: Temperature
*Initial Conditions, type=TEMPERATURE
Set-1, 293.
** ----------------------------------------------------------------
** 
** STEP: Step-1
** 
*Step, name=Step-1, nlgeom=NO, inc=30000
*Heat Transfer, end=PERIOD, deltmx=100.
2., 3600., 0.0001, 15., 
** 
** INTERACTIONS
** 
** Interaction: Int-1
*Sfilm
out_coat, F, 375., 6.
** Interaction: Int-2
*Sradiate
out_coat, R, 375., 0.8
** Interaction: Int-3
*Sfilm
in_allumi, F, 308., 3.8
** 
** OUTPUT REQUESTS
** 
*Restart, write, frequency=0
** 
** FIELD OUTPUT: F-Output-1
** 
*Output, field, variable=PRESELECT
** 
** HISTORY OUTPUT: H-Output-1
** 
*Output, history
*Radiation Output
FTEMP, 
*End Step
